
**** 11/08/22 21:39:07 **** PSpice 17.4.0 (8 October 2022) **** ID# 0 ********

 ** Profile: "TB_SUM8BIT-SUM8BIT_400P0_1ns"  [ d:\workspace\ub\2_fall2022\eleg448_vlsi\projects\project_2\alu-8bit\design\alu-PSpiceF


 ****     CIRCUIT DESCRIPTION


******************************************************************************




** Creating circuit file "SUM8BIT_400P0_1ns.cir" 
** WARNING: THIS AUTOMATICALLY GENERATED FILE MAY BE OVERWRITTEN BY SUBSEQUENT SIMULATIONS

*Libraries: 
* Profile Libraries :
* Local Libraries :
* From [PSPICE NETLIST] section of C:\Users\Rajiv\cdssetup\OrCAD_PSpice\17.4.0\PSpice.ini file:
.lib "nom.lib" 

*Analysis directives: 
.TRAN  0 400n 0 0.1n 
.OPTIONS ADVCONV
.PROBE64 V(alias(*)) I(alias(*)) W(alias(*)) D(alias(*)) NOISE(alias(*)) 
.INC "..\TB_SUM8BIT.net" 



**** INCLUDING TB_SUM8BIT.net ****
* source ALU
M_DUT_SUM8BIT_SUM_8BIT_UNIT1_SUM_BLOCK3_P_M104        
+  DUT_SUM8BIT_SUM_8BIT_UNIT1_SUM_BLOCK3_P_OUT1_XNOR
+  DUT_SUM8BIT_SUM_8BIT_UNIT1_SUM_BLOCK3_P_IN2_INV
+  DUT_SUM8BIT_SUM_8BIT_UNIT1_SUM_BLOCK3_P_N14272 N00168 MbreakP  
+ L=2e-6  
+ W=9e-6         
M_DUT_SUM8BIT_SUM_8BIT_UNIT1_SUM_BLOCK3_P_M6        
+  DUT_SUM8BIT_SUM_8BIT_UNIT1_SUM_BLOCK3_P_IN2_INV N00146 0 0 MbreakN  
+ L=2e-6  
+ W=3e-6         
M_DUT_SUM8BIT_SUM_8BIT_UNIT1_SUM_BLOCK3_P_M3        
+  DUT_SUM8BIT_SUM_8BIT_UNIT1_SUM_BLOCK3_P_OUT1_XNOR N00142
+  DUT_SUM8BIT_SUM_8BIT_UNIT1_SUM_BLOCK3_P_N14660 0 MbreakN  
+ L=2e-6  
+ W=3e-6         
M_DUT_SUM8BIT_SUM_8BIT_UNIT1_SUM_BLOCK3_P_M101        
+  DUT_SUM8BIT_SUM_8BIT_UNIT1_SUM_BLOCK3_P_N14272
+  DUT_SUM8BIT_SUM_8BIT_UNIT1_SUM_BLOCK3_P_IN1_INV N00168 N00168 MbreakP  
+ L=2e-6  
+ W=9e-6         
M_DUT_SUM8BIT_SUM_8BIT_UNIT1_SUM_BLOCK3_P_M9        
+  DUT_SUM8BIT_SUM_8BIT_UNIT1_SUM_BLOCK3_P_IN1_INV N00142 N00168 N00168 MbreakP  
+ L=2e-6  
+ W=9e-6         
M_DUT_SUM8BIT_SUM_8BIT_UNIT1_SUM_BLOCK3_P_M107         OUT_S3_SUM8BIT
+  DUT_SUM8BIT_SUM_8BIT_UNIT1_SUM_BLOCK3_P_OUT1_XNOR N00168 N00168 MbreakP  
+ L=2e-6  
+ W=9e-6         
M_DUT_SUM8BIT_SUM_8BIT_UNIT1_SUM_BLOCK3_P_M108         OUT_S3_SUM8BIT
+  DUT_SUM8BIT_SUM_8BIT_UNIT1_SUM_BLOCK3_P_OUT1_XNOR 0 0 MbreakN  
+ L=2e-6  
+ W=3e-6         
M_DUT_SUM8BIT_SUM_8BIT_UNIT1_SUM_BLOCK3_P_M102        
+  DUT_SUM8BIT_SUM_8BIT_UNIT1_SUM_BLOCK3_P_N14272 N00146 N00168 N00168 MbreakP  
+ L=2e-6  
+ W=9e-6         
M_DUT_SUM8BIT_SUM_8BIT_UNIT1_SUM_BLOCK3_P_M2        
+  DUT_SUM8BIT_SUM_8BIT_UNIT1_SUM_BLOCK3_P_N14654 N00146 0 0 MbreakN  
+ L=2e-6  
+ W=3e-6         
M_DUT_SUM8BIT_SUM_8BIT_UNIT1_SUM_BLOCK3_P_M105        
+  DUT_SUM8BIT_SUM_8BIT_UNIT1_SUM_BLOCK3_P_OUT1_XNOR N00142
+  DUT_SUM8BIT_SUM_8BIT_UNIT1_SUM_BLOCK3_P_N14272 N00168 MbreakP  
+ L=2e-6  
+ W=9e-6         
M_DUT_SUM8BIT_SUM_8BIT_UNIT1_SUM_BLOCK3_P_M1        
+  DUT_SUM8BIT_SUM_8BIT_UNIT1_SUM_BLOCK3_P_OUT1_XNOR
+  DUT_SUM8BIT_SUM_8BIT_UNIT1_SUM_BLOCK3_P_IN1_INV
+  DUT_SUM8BIT_SUM_8BIT_UNIT1_SUM_BLOCK3_P_N14654 0 MbreakN  
+ L=2e-6  
+ W=3e-6         
M_DUT_SUM8BIT_SUM_8BIT_UNIT1_SUM_BLOCK3_P_M5        
+  DUT_SUM8BIT_SUM_8BIT_UNIT1_SUM_BLOCK3_P_IN1_INV N00142 0 0 MbreakN  
+ L=2e-6  
+ W=3e-6         
M_DUT_SUM8BIT_SUM_8BIT_UNIT1_SUM_BLOCK3_P_M106        
+  DUT_SUM8BIT_SUM_8BIT_UNIT1_SUM_BLOCK3_P_IN2_INV N00146 N00168 N00168 MbreakP  
+ L=2e-6  
+ W=9e-6         
M_DUT_SUM8BIT_SUM_8BIT_UNIT1_SUM_BLOCK3_P_M4        
+  DUT_SUM8BIT_SUM_8BIT_UNIT1_SUM_BLOCK3_P_N14660
+  DUT_SUM8BIT_SUM_8BIT_UNIT1_SUM_BLOCK3_P_IN2_INV 0 0 MbreakN  
+ L=2e-6  
+ W=3e-6         
M_DUT_SUM8BIT_SUM_8BIT_UNIT1_SUM_BLOCK_P_M104        
+  DUT_SUM8BIT_SUM_8BIT_UNIT1_SUM_BLOCK_P_OUT1_XNOR
+  DUT_SUM8BIT_SUM_8BIT_UNIT1_SUM_BLOCK_P_IN2_INV
+  DUT_SUM8BIT_SUM_8BIT_UNIT1_SUM_BLOCK_P_N14272 N00168 MbreakP  
+ L=2e-6  
+ W=9e-6         
M_DUT_SUM8BIT_SUM_8BIT_UNIT1_SUM_BLOCK_P_M6        
+  DUT_SUM8BIT_SUM_8BIT_UNIT1_SUM_BLOCK_P_IN2_INV N00146 0 0 MbreakN  
+ L=2e-6  
+ W=3e-6         
M_DUT_SUM8BIT_SUM_8BIT_UNIT1_SUM_BLOCK_P_M3        
+  DUT_SUM8BIT_SUM_8BIT_UNIT1_SUM_BLOCK_P_OUT1_XNOR N00142
+  DUT_SUM8BIT_SUM_8BIT_UNIT1_SUM_BLOCK_P_N14660 0 MbreakN  
+ L=2e-6  
+ W=3e-6         
M_DUT_SUM8BIT_SUM_8BIT_UNIT1_SUM_BLOCK_P_M101        
+  DUT_SUM8BIT_SUM_8BIT_UNIT1_SUM_BLOCK_P_N14272
+  DUT_SUM8BIT_SUM_8BIT_UNIT1_SUM_BLOCK_P_IN1_INV N00168 N00168 MbreakP  
+ L=2e-6  
+ W=9e-6         
M_DUT_SUM8BIT_SUM_8BIT_UNIT1_SUM_BLOCK_P_M9        
+  DUT_SUM8BIT_SUM_8BIT_UNIT1_SUM_BLOCK_P_IN1_INV N00142 N00168 N00168 MbreakP  
+ L=2e-6  
+ W=9e-6         
M_DUT_SUM8BIT_SUM_8BIT_UNIT1_SUM_BLOCK_P_M107         OUT_S0_SUM8BIT
+  DUT_SUM8BIT_SUM_8BIT_UNIT1_SUM_BLOCK_P_OUT1_XNOR N00168 N00168 MbreakP  
+ L=2e-6  
+ W=9e-6         
M_DUT_SUM8BIT_SUM_8BIT_UNIT1_SUM_BLOCK_P_M108         OUT_S0_SUM8BIT
+  DUT_SUM8BIT_SUM_8BIT_UNIT1_SUM_BLOCK_P_OUT1_XNOR 0 0 MbreakN  
+ L=2e-6  
+ W=3e-6         
M_DUT_SUM8BIT_SUM_8BIT_UNIT1_SUM_BLOCK_P_M102        
+  DUT_SUM8BIT_SUM_8BIT_UNIT1_SUM_BLOCK_P_N14272 N00146 N00168 N00168 MbreakP  
+ L=2e-6  
+ W=9e-6         
M_DUT_SUM8BIT_SUM_8BIT_UNIT1_SUM_BLOCK_P_M2        
+  DUT_SUM8BIT_SUM_8BIT_UNIT1_SUM_BLOCK_P_N14654 N00146 0 0 MbreakN  
+ L=2e-6  
+ W=3e-6         
M_DUT_SUM8BIT_SUM_8BIT_UNIT1_SUM_BLOCK_P_M105        
+  DUT_SUM8BIT_SUM_8BIT_UNIT1_SUM_BLOCK_P_OUT1_XNOR N00142
+  DUT_SUM8BIT_SUM_8BIT_UNIT1_SUM_BLOCK_P_N14272 N00168 MbreakP  
+ L=2e-6  
+ W=9e-6         
M_DUT_SUM8BIT_SUM_8BIT_UNIT1_SUM_BLOCK_P_M1        
+  DUT_SUM8BIT_SUM_8BIT_UNIT1_SUM_BLOCK_P_OUT1_XNOR
+  DUT_SUM8BIT_SUM_8BIT_UNIT1_SUM_BLOCK_P_IN1_INV
+  DUT_SUM8BIT_SUM_8BIT_UNIT1_SUM_BLOCK_P_N14654 0 MbreakN  
+ L=2e-6  
+ W=3e-6         
M_DUT_SUM8BIT_SUM_8BIT_UNIT1_SUM_BLOCK_P_M5        
+  DUT_SUM8BIT_SUM_8BIT_UNIT1_SUM_BLOCK_P_IN1_INV N00142 0 0 MbreakN  
+ L=2e-6  
+ W=3e-6         
M_DUT_SUM8BIT_SUM_8BIT_UNIT1_SUM_BLOCK_P_M106        
+  DUT_SUM8BIT_SUM_8BIT_UNIT1_SUM_BLOCK_P_IN2_INV N00146 N00168 N00168 MbreakP  
+ L=2e-6  
+ W=9e-6         
M_DUT_SUM8BIT_SUM_8BIT_UNIT1_SUM_BLOCK_P_M4        
+  DUT_SUM8BIT_SUM_8BIT_UNIT1_SUM_BLOCK_P_N14660
+  DUT_SUM8BIT_SUM_8BIT_UNIT1_SUM_BLOCK_P_IN2_INV 0 0 MbreakN  
+ L=2e-6  
+ W=3e-6         
M_DUT_SUM8BIT_SUM_8BIT_UNIT1_SUM_BLOCK1_P_M104        
+  DUT_SUM8BIT_SUM_8BIT_UNIT1_SUM_BLOCK1_P_OUT1_XNOR
+  DUT_SUM8BIT_SUM_8BIT_UNIT1_SUM_BLOCK1_P_IN2_INV
+  DUT_SUM8BIT_SUM_8BIT_UNIT1_SUM_BLOCK1_P_N14272 N00168 MbreakP  
+ L=2e-6  
+ W=9e-6         
M_DUT_SUM8BIT_SUM_8BIT_UNIT1_SUM_BLOCK1_P_M6        
+  DUT_SUM8BIT_SUM_8BIT_UNIT1_SUM_BLOCK1_P_IN2_INV N00146 0 0 MbreakN  
+ L=2e-6  
+ W=3e-6         
M_DUT_SUM8BIT_SUM_8BIT_UNIT1_SUM_BLOCK1_P_M3        
+  DUT_SUM8BIT_SUM_8BIT_UNIT1_SUM_BLOCK1_P_OUT1_XNOR N00142
+  DUT_SUM8BIT_SUM_8BIT_UNIT1_SUM_BLOCK1_P_N14660 0 MbreakN  
+ L=2e-6  
+ W=3e-6         
M_DUT_SUM8BIT_SUM_8BIT_UNIT1_SUM_BLOCK1_P_M101        
+  DUT_SUM8BIT_SUM_8BIT_UNIT1_SUM_BLOCK1_P_N14272
+  DUT_SUM8BIT_SUM_8BIT_UNIT1_SUM_BLOCK1_P_IN1_INV N00168 N00168 MbreakP  
+ L=2e-6  
+ W=9e-6         
M_DUT_SUM8BIT_SUM_8BIT_UNIT1_SUM_BLOCK1_P_M9        
+  DUT_SUM8BIT_SUM_8BIT_UNIT1_SUM_BLOCK1_P_IN1_INV N00142 N00168 N00168 MbreakP  
+ L=2e-6  
+ W=9e-6         
M_DUT_SUM8BIT_SUM_8BIT_UNIT1_SUM_BLOCK1_P_M107         OUT_S1_SUM8BIT
+  DUT_SUM8BIT_SUM_8BIT_UNIT1_SUM_BLOCK1_P_OUT1_XNOR N00168 N00168 MbreakP  
+ L=2e-6  
+ W=9e-6         
M_DUT_SUM8BIT_SUM_8BIT_UNIT1_SUM_BLOCK1_P_M108         OUT_S1_SUM8BIT
+  DUT_SUM8BIT_SUM_8BIT_UNIT1_SUM_BLOCK1_P_OUT1_XNOR 0 0 MbreakN  
+ L=2e-6  
+ W=3e-6         
M_DUT_SUM8BIT_SUM_8BIT_UNIT1_SUM_BLOCK1_P_M102        
+  DUT_SUM8BIT_SUM_8BIT_UNIT1_SUM_BLOCK1_P_N14272 N00146 N00168 N00168 MbreakP  
+ L=2e-6  
+ W=9e-6         
M_DUT_SUM8BIT_SUM_8BIT_UNIT1_SUM_BLOCK1_P_M2        
+  DUT_SUM8BIT_SUM_8BIT_UNIT1_SUM_BLOCK1_P_N14654 N00146 0 0 MbreakN  
+ L=2e-6  
+ W=3e-6         
M_DUT_SUM8BIT_SUM_8BIT_UNIT1_SUM_BLOCK1_P_M105        
+  DUT_SUM8BIT_SUM_8BIT_UNIT1_SUM_BLOCK1_P_OUT1_XNOR N00142
+  DUT_SUM8BIT_SUM_8BIT_UNIT1_SUM_BLOCK1_P_N14272 N00168 MbreakP  
+ L=2e-6  
+ W=9e-6         
M_DUT_SUM8BIT_SUM_8BIT_UNIT1_SUM_BLOCK1_P_M1        
+  DUT_SUM8BIT_SUM_8BIT_UNIT1_SUM_BLOCK1_P_OUT1_XNOR
+  DUT_SUM8BIT_SUM_8BIT_UNIT1_SUM_BLOCK1_P_IN1_INV
+  DUT_SUM8BIT_SUM_8BIT_UNIT1_SUM_BLOCK1_P_N14654 0 MbreakN  
+ L=2e-6  
+ W=3e-6         
M_DUT_SUM8BIT_SUM_8BIT_UNIT1_SUM_BLOCK1_P_M5        
+  DUT_SUM8BIT_SUM_8BIT_UNIT1_SUM_BLOCK1_P_IN1_INV N00142 0 0 MbreakN  
+ L=2e-6  
+ W=3e-6         
M_DUT_SUM8BIT_SUM_8BIT_UNIT1_SUM_BLOCK1_P_M106        
+  DUT_SUM8BIT_SUM_8BIT_UNIT1_SUM_BLOCK1_P_IN2_INV N00146 N00168 N00168 MbreakP  
+ L=2e-6  
+ W=9e-6         
M_DUT_SUM8BIT_SUM_8BIT_UNIT1_SUM_BLOCK1_P_M4        
+  DUT_SUM8BIT_SUM_8BIT_UNIT1_SUM_BLOCK1_P_N14660
+  DUT_SUM8BIT_SUM_8BIT_UNIT1_SUM_BLOCK1_P_IN2_INV 0 0 MbreakN  
+ L=2e-6  
+ W=3e-6         
M_DUT_SUM8BIT_SUM_8BIT_UNIT1_SUM_BLOCK2_P_M104        
+  DUT_SUM8BIT_SUM_8BIT_UNIT1_SUM_BLOCK2_P_OUT1_XNOR
+  DUT_SUM8BIT_SUM_8BIT_UNIT1_SUM_BLOCK2_P_IN2_INV
+  DUT_SUM8BIT_SUM_8BIT_UNIT1_SUM_BLOCK2_P_N14272 N00168 MbreakP  
+ L=2e-6  
+ W=9e-6         
M_DUT_SUM8BIT_SUM_8BIT_UNIT1_SUM_BLOCK2_P_M6        
+  DUT_SUM8BIT_SUM_8BIT_UNIT1_SUM_BLOCK2_P_IN2_INV N00146 0 0 MbreakN  
+ L=2e-6  
+ W=3e-6         
M_DUT_SUM8BIT_SUM_8BIT_UNIT1_SUM_BLOCK2_P_M3        
+  DUT_SUM8BIT_SUM_8BIT_UNIT1_SUM_BLOCK2_P_OUT1_XNOR N00142
+  DUT_SUM8BIT_SUM_8BIT_UNIT1_SUM_BLOCK2_P_N14660 0 MbreakN  
+ L=2e-6  
+ W=3e-6         
M_DUT_SUM8BIT_SUM_8BIT_UNIT1_SUM_BLOCK2_P_M101        
+  DUT_SUM8BIT_SUM_8BIT_UNIT1_SUM_BLOCK2_P_N14272
+  DUT_SUM8BIT_SUM_8BIT_UNIT1_SUM_BLOCK2_P_IN1_INV N00168 N00168 MbreakP  
+ L=2e-6  
+ W=9e-6         
M_DUT_SUM8BIT_SUM_8BIT_UNIT1_SUM_BLOCK2_P_M9        
+  DUT_SUM8BIT_SUM_8BIT_UNIT1_SUM_BLOCK2_P_IN1_INV N00142 N00168 N00168 MbreakP  
+ L=2e-6  
+ W=9e-6         
M_DUT_SUM8BIT_SUM_8BIT_UNIT1_SUM_BLOCK2_P_M107         OUT_S2_SUM8BIT
+  DUT_SUM8BIT_SUM_8BIT_UNIT1_SUM_BLOCK2_P_OUT1_XNOR N00168 N00168 MbreakP  
+ L=2e-6  
+ W=9e-6         
M_DUT_SUM8BIT_SUM_8BIT_UNIT1_SUM_BLOCK2_P_M108         OUT_S2_SUM8BIT
+  DUT_SUM8BIT_SUM_8BIT_UNIT1_SUM_BLOCK2_P_OUT1_XNOR 0 0 MbreakN  
+ L=2e-6  
+ W=3e-6         
M_DUT_SUM8BIT_SUM_8BIT_UNIT1_SUM_BLOCK2_P_M102        
+  DUT_SUM8BIT_SUM_8BIT_UNIT1_SUM_BLOCK2_P_N14272 N00146 N00168 N00168 MbreakP  
+ L=2e-6  
+ W=9e-6         
M_DUT_SUM8BIT_SUM_8BIT_UNIT1_SUM_BLOCK2_P_M2        
+  DUT_SUM8BIT_SUM_8BIT_UNIT1_SUM_BLOCK2_P_N14654 N00146 0 0 MbreakN  
+ L=2e-6  
+ W=3e-6         
M_DUT_SUM8BIT_SUM_8BIT_UNIT1_SUM_BLOCK2_P_M105        
+  DUT_SUM8BIT_SUM_8BIT_UNIT1_SUM_BLOCK2_P_OUT1_XNOR N00142
+  DUT_SUM8BIT_SUM_8BIT_UNIT1_SUM_BLOCK2_P_N14272 N00168 MbreakP  
+ L=2e-6  
+ W=9e-6         
M_DUT_SUM8BIT_SUM_8BIT_UNIT1_SUM_BLOCK2_P_M1        
+  DUT_SUM8BIT_SUM_8BIT_UNIT1_SUM_BLOCK2_P_OUT1_XNOR
+  DUT_SUM8BIT_SUM_8BIT_UNIT1_SUM_BLOCK2_P_IN1_INV
+  DUT_SUM8BIT_SUM_8BIT_UNIT1_SUM_BLOCK2_P_N14654 0 MbreakN  
+ L=2e-6  
+ W=3e-6         
M_DUT_SUM8BIT_SUM_8BIT_UNIT1_SUM_BLOCK2_P_M5        
+  DUT_SUM8BIT_SUM_8BIT_UNIT1_SUM_BLOCK2_P_IN1_INV N00142 0 0 MbreakN  
+ L=2e-6  
+ W=3e-6         
M_DUT_SUM8BIT_SUM_8BIT_UNIT1_SUM_BLOCK2_P_M106        
+  DUT_SUM8BIT_SUM_8BIT_UNIT1_SUM_BLOCK2_P_IN2_INV N00146 N00168 N00168 MbreakP  
+ L=2e-6  
+ W=9e-6         
M_DUT_SUM8BIT_SUM_8BIT_UNIT1_SUM_BLOCK2_P_M4        
+  DUT_SUM8BIT_SUM_8BIT_UNIT1_SUM_BLOCK2_P_N14660
+  DUT_SUM8BIT_SUM_8BIT_UNIT1_SUM_BLOCK2_P_IN2_INV 0 0 MbreakN  
+ L=2e-6  
+ W=3e-6         
M_DUT_SUM8BIT_SUM_8BIT_UNIT2_SUM_BLOCK3_P_M104        
+  DUT_SUM8BIT_SUM_8BIT_UNIT2_SUM_BLOCK3_P_OUT1_XNOR
+  DUT_SUM8BIT_SUM_8BIT_UNIT2_SUM_BLOCK3_P_IN2_INV
+  DUT_SUM8BIT_SUM_8BIT_UNIT2_SUM_BLOCK3_P_N14272 N00168 MbreakP  
+ L=2e-6  
+ W=9e-6         
M_DUT_SUM8BIT_SUM_8BIT_UNIT2_SUM_BLOCK3_P_M6        
+  DUT_SUM8BIT_SUM_8BIT_UNIT2_SUM_BLOCK3_P_IN2_INV N00146 0 0 MbreakN  
+ L=2e-6  
+ W=3e-6         
M_DUT_SUM8BIT_SUM_8BIT_UNIT2_SUM_BLOCK3_P_M3        
+  DUT_SUM8BIT_SUM_8BIT_UNIT2_SUM_BLOCK3_P_OUT1_XNOR N00142
+  DUT_SUM8BIT_SUM_8BIT_UNIT2_SUM_BLOCK3_P_N14660 0 MbreakN  
+ L=2e-6  
+ W=3e-6         
M_DUT_SUM8BIT_SUM_8BIT_UNIT2_SUM_BLOCK3_P_M101        
+  DUT_SUM8BIT_SUM_8BIT_UNIT2_SUM_BLOCK3_P_N14272
+  DUT_SUM8BIT_SUM_8BIT_UNIT2_SUM_BLOCK3_P_IN1_INV N00168 N00168 MbreakP  
+ L=2e-6  
+ W=9e-6         
M_DUT_SUM8BIT_SUM_8BIT_UNIT2_SUM_BLOCK3_P_M9        
+  DUT_SUM8BIT_SUM_8BIT_UNIT2_SUM_BLOCK3_P_IN1_INV N00142 N00168 N00168 MbreakP  
+ L=2e-6  
+ W=9e-6         
M_DUT_SUM8BIT_SUM_8BIT_UNIT2_SUM_BLOCK3_P_M107         OUT_S7_SUM8BIT
+  DUT_SUM8BIT_SUM_8BIT_UNIT2_SUM_BLOCK3_P_OUT1_XNOR N00168 N00168 MbreakP  
+ L=2e-6  
+ W=9e-6         
M_DUT_SUM8BIT_SUM_8BIT_UNIT2_SUM_BLOCK3_P_M108         OUT_S7_SUM8BIT
+  DUT_SUM8BIT_SUM_8BIT_UNIT2_SUM_BLOCK3_P_OUT1_XNOR 0 0 MbreakN  
+ L=2e-6  
+ W=3e-6         
M_DUT_SUM8BIT_SUM_8BIT_UNIT2_SUM_BLOCK3_P_M102        
+  DUT_SUM8BIT_SUM_8BIT_UNIT2_SUM_BLOCK3_P_N14272 N00146 N00168 N00168 MbreakP  
+ L=2e-6  
+ W=9e-6         
M_DUT_SUM8BIT_SUM_8BIT_UNIT2_SUM_BLOCK3_P_M2        
+  DUT_SUM8BIT_SUM_8BIT_UNIT2_SUM_BLOCK3_P_N14654 N00146 0 0 MbreakN  
+ L=2e-6  
+ W=3e-6         
M_DUT_SUM8BIT_SUM_8BIT_UNIT2_SUM_BLOCK3_P_M105        
+  DUT_SUM8BIT_SUM_8BIT_UNIT2_SUM_BLOCK3_P_OUT1_XNOR N00142
+  DUT_SUM8BIT_SUM_8BIT_UNIT2_SUM_BLOCK3_P_N14272 N00168 MbreakP  
+ L=2e-6  
+ W=9e-6         
M_DUT_SUM8BIT_SUM_8BIT_UNIT2_SUM_BLOCK3_P_M1        
+  DUT_SUM8BIT_SUM_8BIT_UNIT2_SUM_BLOCK3_P_OUT1_XNOR
+  DUT_SUM8BIT_SUM_8BIT_UNIT2_SUM_BLOCK3_P_IN1_INV
+  DUT_SUM8BIT_SUM_8BIT_UNIT2_SUM_BLOCK3_P_N14654 0 MbreakN  
+ L=2e-6  
+ W=3e-6         
M_DUT_SUM8BIT_SUM_8BIT_UNIT2_SUM_BLOCK3_P_M5        
+  DUT_SUM8BIT_SUM_8BIT_UNIT2_SUM_BLOCK3_P_IN1_INV N00142 0 0 MbreakN  
+ L=2e-6  
+ W=3e-6         
M_DUT_SUM8BIT_SUM_8BIT_UNIT2_SUM_BLOCK3_P_M106        
+  DUT_SUM8BIT_SUM_8BIT_UNIT2_SUM_BLOCK3_P_IN2_INV N00146 N00168 N00168 MbreakP  
+ L=2e-6  
+ W=9e-6         
M_DUT_SUM8BIT_SUM_8BIT_UNIT2_SUM_BLOCK3_P_M4        
+  DUT_SUM8BIT_SUM_8BIT_UNIT2_SUM_BLOCK3_P_N14660
+  DUT_SUM8BIT_SUM_8BIT_UNIT2_SUM_BLOCK3_P_IN2_INV 0 0 MbreakN  
+ L=2e-6  
+ W=3e-6         
M_DUT_SUM8BIT_SUM_8BIT_UNIT2_SUM_BLOCK_P_M104        
+  DUT_SUM8BIT_SUM_8BIT_UNIT2_SUM_BLOCK_P_OUT1_XNOR
+  DUT_SUM8BIT_SUM_8BIT_UNIT2_SUM_BLOCK_P_IN2_INV
+  DUT_SUM8BIT_SUM_8BIT_UNIT2_SUM_BLOCK_P_N14272 N00168 MbreakP  
+ L=2e-6  
+ W=9e-6         
M_DUT_SUM8BIT_SUM_8BIT_UNIT2_SUM_BLOCK_P_M6        
+  DUT_SUM8BIT_SUM_8BIT_UNIT2_SUM_BLOCK_P_IN2_INV N00146 0 0 MbreakN  
+ L=2e-6  
+ W=3e-6         
M_DUT_SUM8BIT_SUM_8BIT_UNIT2_SUM_BLOCK_P_M3        
+  DUT_SUM8BIT_SUM_8BIT_UNIT2_SUM_BLOCK_P_OUT1_XNOR N00142
+  DUT_SUM8BIT_SUM_8BIT_UNIT2_SUM_BLOCK_P_N14660 0 MbreakN  
+ L=2e-6  
+ W=3e-6         
M_DUT_SUM8BIT_SUM_8BIT_UNIT2_SUM_BLOCK_P_M101        
+  DUT_SUM8BIT_SUM_8BIT_UNIT2_SUM_BLOCK_P_N14272
+  DUT_SUM8BIT_SUM_8BIT_UNIT2_SUM_BLOCK_P_IN1_INV N00168 N00168 MbreakP  
+ L=2e-6  
+ W=9e-6         
M_DUT_SUM8BIT_SUM_8BIT_UNIT2_SUM_BLOCK_P_M9        
+  DUT_SUM8BIT_SUM_8BIT_UNIT2_SUM_BLOCK_P_IN1_INV N00142 N00168 N00168 MbreakP  
+ L=2e-6  
+ W=9e-6         
M_DUT_SUM8BIT_SUM_8BIT_UNIT2_SUM_BLOCK_P_M107         OUT_S4_SUM8BIT
+  DUT_SUM8BIT_SUM_8BIT_UNIT2_SUM_BLOCK_P_OUT1_XNOR N00168 N00168 MbreakP  
+ L=2e-6  
+ W=9e-6         
M_DUT_SUM8BIT_SUM_8BIT_UNIT2_SUM_BLOCK_P_M108         OUT_S4_SUM8BIT
+  DUT_SUM8BIT_SUM_8BIT_UNIT2_SUM_BLOCK_P_OUT1_XNOR 0 0 MbreakN  
+ L=2e-6  
+ W=3e-6         
M_DUT_SUM8BIT_SUM_8BIT_UNIT2_SUM_BLOCK_P_M102        
+  DUT_SUM8BIT_SUM_8BIT_UNIT2_SUM_BLOCK_P_N14272 N00146 N00168 N00168 MbreakP  
+ L=2e-6  
+ W=9e-6         
M_DUT_SUM8BIT_SUM_8BIT_UNIT2_SUM_BLOCK_P_M2        
+  DUT_SUM8BIT_SUM_8BIT_UNIT2_SUM_BLOCK_P_N14654 N00146 0 0 MbreakN  
+ L=2e-6  
+ W=3e-6         
M_DUT_SUM8BIT_SUM_8BIT_UNIT2_SUM_BLOCK_P_M105        
+  DUT_SUM8BIT_SUM_8BIT_UNIT2_SUM_BLOCK_P_OUT1_XNOR N00142
+  DUT_SUM8BIT_SUM_8BIT_UNIT2_SUM_BLOCK_P_N14272 N00168 MbreakP  
+ L=2e-6  
+ W=9e-6         
M_DUT_SUM8BIT_SUM_8BIT_UNIT2_SUM_BLOCK_P_M1        
+  DUT_SUM8BIT_SUM_8BIT_UNIT2_SUM_BLOCK_P_OUT1_XNOR
+  DUT_SUM8BIT_SUM_8BIT_UNIT2_SUM_BLOCK_P_IN1_INV
+  DUT_SUM8BIT_SUM_8BIT_UNIT2_SUM_BLOCK_P_N14654 0 MbreakN  
+ L=2e-6  
+ W=3e-6         
M_DUT_SUM8BIT_SUM_8BIT_UNIT2_SUM_BLOCK_P_M5        
+  DUT_SUM8BIT_SUM_8BIT_UNIT2_SUM_BLOCK_P_IN1_INV N00142 0 0 MbreakN  
+ L=2e-6  
+ W=3e-6         
M_DUT_SUM8BIT_SUM_8BIT_UNIT2_SUM_BLOCK_P_M106        
+  DUT_SUM8BIT_SUM_8BIT_UNIT2_SUM_BLOCK_P_IN2_INV N00146 N00168 N00168 MbreakP  
+ L=2e-6  
+ W=9e-6         
M_DUT_SUM8BIT_SUM_8BIT_UNIT2_SUM_BLOCK_P_M4        
+  DUT_SUM8BIT_SUM_8BIT_UNIT2_SUM_BLOCK_P_N14660
+  DUT_SUM8BIT_SUM_8BIT_UNIT2_SUM_BLOCK_P_IN2_INV 0 0 MbreakN  
+ L=2e-6  
+ W=3e-6         
M_DUT_SUM8BIT_SUM_8BIT_UNIT2_SUM_BLOCK1_P_M104        
+  DUT_SUM8BIT_SUM_8BIT_UNIT2_SUM_BLOCK1_P_OUT1_XNOR
+  DUT_SUM8BIT_SUM_8BIT_UNIT2_SUM_BLOCK1_P_IN2_INV
+  DUT_SUM8BIT_SUM_8BIT_UNIT2_SUM_BLOCK1_P_N14272 N00168 MbreakP  
+ L=2e-6  
+ W=9e-6         
M_DUT_SUM8BIT_SUM_8BIT_UNIT2_SUM_BLOCK1_P_M6        
+  DUT_SUM8BIT_SUM_8BIT_UNIT2_SUM_BLOCK1_P_IN2_INV N00146 0 0 MbreakN  
+ L=2e-6  
+ W=3e-6         
M_DUT_SUM8BIT_SUM_8BIT_UNIT2_SUM_BLOCK1_P_M3        
+  DUT_SUM8BIT_SUM_8BIT_UNIT2_SUM_BLOCK1_P_OUT1_XNOR N00142
+  DUT_SUM8BIT_SUM_8BIT_UNIT2_SUM_BLOCK1_P_N14660 0 MbreakN  
+ L=2e-6  
+ W=3e-6         
M_DUT_SUM8BIT_SUM_8BIT_UNIT2_SUM_BLOCK1_P_M101        
+  DUT_SUM8BIT_SUM_8BIT_UNIT2_SUM_BLOCK1_P_N14272
+  DUT_SUM8BIT_SUM_8BIT_UNIT2_SUM_BLOCK1_P_IN1_INV N00168 N00168 MbreakP  
+ L=2e-6  
+ W=9e-6         
M_DUT_SUM8BIT_SUM_8BIT_UNIT2_SUM_BLOCK1_P_M9        
+  DUT_SUM8BIT_SUM_8BIT_UNIT2_SUM_BLOCK1_P_IN1_INV N00142 N00168 N00168 MbreakP  
+ L=2e-6  
+ W=9e-6         
M_DUT_SUM8BIT_SUM_8BIT_UNIT2_SUM_BLOCK1_P_M107         OUT_S5_SUM8BIT
+  DUT_SUM8BIT_SUM_8BIT_UNIT2_SUM_BLOCK1_P_OUT1_XNOR N00168 N00168 MbreakP  
+ L=2e-6  
+ W=9e-6         
M_DUT_SUM8BIT_SUM_8BIT_UNIT2_SUM_BLOCK1_P_M108         OUT_S5_SUM8BIT
+  DUT_SUM8BIT_SUM_8BIT_UNIT2_SUM_BLOCK1_P_OUT1_XNOR 0 0 MbreakN  
+ L=2e-6  
+ W=3e-6         
M_DUT_SUM8BIT_SUM_8BIT_UNIT2_SUM_BLOCK1_P_M102        
+  DUT_SUM8BIT_SUM_8BIT_UNIT2_SUM_BLOCK1_P_N14272 N00146 N00168 N00168 MbreakP  
+ L=2e-6  
+ W=9e-6         
M_DUT_SUM8BIT_SUM_8BIT_UNIT2_SUM_BLOCK1_P_M2        
+  DUT_SUM8BIT_SUM_8BIT_UNIT2_SUM_BLOCK1_P_N14654 N00146 0 0 MbreakN  
+ L=2e-6  
+ W=3e-6         
M_DUT_SUM8BIT_SUM_8BIT_UNIT2_SUM_BLOCK1_P_M105        
+  DUT_SUM8BIT_SUM_8BIT_UNIT2_SUM_BLOCK1_P_OUT1_XNOR N00142
+  DUT_SUM8BIT_SUM_8BIT_UNIT2_SUM_BLOCK1_P_N14272 N00168 MbreakP  
+ L=2e-6  
+ W=9e-6         
M_DUT_SUM8BIT_SUM_8BIT_UNIT2_SUM_BLOCK1_P_M1        
+  DUT_SUM8BIT_SUM_8BIT_UNIT2_SUM_BLOCK1_P_OUT1_XNOR
+  DUT_SUM8BIT_SUM_8BIT_UNIT2_SUM_BLOCK1_P_IN1_INV
+  DUT_SUM8BIT_SUM_8BIT_UNIT2_SUM_BLOCK1_P_N14654 0 MbreakN  
+ L=2e-6  
+ W=3e-6         
M_DUT_SUM8BIT_SUM_8BIT_UNIT2_SUM_BLOCK1_P_M5        
+  DUT_SUM8BIT_SUM_8BIT_UNIT2_SUM_BLOCK1_P_IN1_INV N00142 0 0 MbreakN  
+ L=2e-6  
+ W=3e-6         
M_DUT_SUM8BIT_SUM_8BIT_UNIT2_SUM_BLOCK1_P_M106        
+  DUT_SUM8BIT_SUM_8BIT_UNIT2_SUM_BLOCK1_P_IN2_INV N00146 N00168 N00168 MbreakP  
+ L=2e-6  
+ W=9e-6         
M_DUT_SUM8BIT_SUM_8BIT_UNIT2_SUM_BLOCK1_P_M4        
+  DUT_SUM8BIT_SUM_8BIT_UNIT2_SUM_BLOCK1_P_N14660
+  DUT_SUM8BIT_SUM_8BIT_UNIT2_SUM_BLOCK1_P_IN2_INV 0 0 MbreakN  
+ L=2e-6  
+ W=3e-6         
M_DUT_SUM8BIT_SUM_8BIT_UNIT2_SUM_BLOCK2_P_M104        
+  DUT_SUM8BIT_SUM_8BIT_UNIT2_SUM_BLOCK2_P_OUT1_XNOR
+  DUT_SUM8BIT_SUM_8BIT_UNIT2_SUM_BLOCK2_P_IN2_INV
+  DUT_SUM8BIT_SUM_8BIT_UNIT2_SUM_BLOCK2_P_N14272 N00168 MbreakP  
+ L=2e-6  
+ W=9e-6         
M_DUT_SUM8BIT_SUM_8BIT_UNIT2_SUM_BLOCK2_P_M6        
+  DUT_SUM8BIT_SUM_8BIT_UNIT2_SUM_BLOCK2_P_IN2_INV N00146 0 0 MbreakN  
+ L=2e-6  
+ W=3e-6         
M_DUT_SUM8BIT_SUM_8BIT_UNIT2_SUM_BLOCK2_P_M3        
+  DUT_SUM8BIT_SUM_8BIT_UNIT2_SUM_BLOCK2_P_OUT1_XNOR N00142
+  DUT_SUM8BIT_SUM_8BIT_UNIT2_SUM_BLOCK2_P_N14660 0 MbreakN  
+ L=2e-6  
+ W=3e-6         
M_DUT_SUM8BIT_SUM_8BIT_UNIT2_SUM_BLOCK2_P_M101        
+  DUT_SUM8BIT_SUM_8BIT_UNIT2_SUM_BLOCK2_P_N14272
+  DUT_SUM8BIT_SUM_8BIT_UNIT2_SUM_BLOCK2_P_IN1_INV N00168 N00168 MbreakP  
+ L=2e-6  
+ W=9e-6         
M_DUT_SUM8BIT_SUM_8BIT_UNIT2_SUM_BLOCK2_P_M9        
+  DUT_SUM8BIT_SUM_8BIT_UNIT2_SUM_BLOCK2_P_IN1_INV N00142 N00168 N00168 MbreakP  
+ L=2e-6  
+ W=9e-6         
M_DUT_SUM8BIT_SUM_8BIT_UNIT2_SUM_BLOCK2_P_M107         OUT_S6_SUM8BIT
+  DUT_SUM8BIT_SUM_8BIT_UNIT2_SUM_BLOCK2_P_OUT1_XNOR N00168 N00168 MbreakP  
+ L=2e-6  
+ W=9e-6         
M_DUT_SUM8BIT_SUM_8BIT_UNIT2_SUM_BLOCK2_P_M108         OUT_S6_SUM8BIT
+  DUT_SUM8BIT_SUM_8BIT_UNIT2_SUM_BLOCK2_P_OUT1_XNOR 0 0 MbreakN  
+ L=2e-6  
+ W=3e-6         
M_DUT_SUM8BIT_SUM_8BIT_UNIT2_SUM_BLOCK2_P_M102        
+  DUT_SUM8BIT_SUM_8BIT_UNIT2_SUM_BLOCK2_P_N14272 N00146 N00168 N00168 MbreakP  
+ L=2e-6  
+ W=9e-6         
M_DUT_SUM8BIT_SUM_8BIT_UNIT2_SUM_BLOCK2_P_M2        
+  DUT_SUM8BIT_SUM_8BIT_UNIT2_SUM_BLOCK2_P_N14654 N00146 0 0 MbreakN  
+ L=2e-6  
+ W=3e-6         
M_DUT_SUM8BIT_SUM_8BIT_UNIT2_SUM_BLOCK2_P_M105        
+  DUT_SUM8BIT_SUM_8BIT_UNIT2_SUM_BLOCK2_P_OUT1_XNOR N00142
+  DUT_SUM8BIT_SUM_8BIT_UNIT2_SUM_BLOCK2_P_N14272 N00168 MbreakP  
+ L=2e-6  
+ W=9e-6         
M_DUT_SUM8BIT_SUM_8BIT_UNIT2_SUM_BLOCK2_P_M1        
+  DUT_SUM8BIT_SUM_8BIT_UNIT2_SUM_BLOCK2_P_OUT1_XNOR
+  DUT_SUM8BIT_SUM_8BIT_UNIT2_SUM_BLOCK2_P_IN1_INV
+  DUT_SUM8BIT_SUM_8BIT_UNIT2_SUM_BLOCK2_P_N14654 0 MbreakN  
+ L=2e-6  
+ W=3e-6         
M_DUT_SUM8BIT_SUM_8BIT_UNIT2_SUM_BLOCK2_P_M5        
+  DUT_SUM8BIT_SUM_8BIT_UNIT2_SUM_BLOCK2_P_IN1_INV N00142 0 0 MbreakN  
+ L=2e-6  
+ W=3e-6         
M_DUT_SUM8BIT_SUM_8BIT_UNIT2_SUM_BLOCK2_P_M106        
+  DUT_SUM8BIT_SUM_8BIT_UNIT2_SUM_BLOCK2_P_IN2_INV N00146 N00168 N00168 MbreakP  
+ L=2e-6  
+ W=9e-6         
M_DUT_SUM8BIT_SUM_8BIT_UNIT2_SUM_BLOCK2_P_M4        
+  DUT_SUM8BIT_SUM_8BIT_UNIT2_SUM_BLOCK2_P_N14660
+  DUT_SUM8BIT_SUM_8BIT_UNIT2_SUM_BLOCK2_P_IN2_INV 0 0 MbreakN  
+ L=2e-6  
+ W=3e-6         
V_TB_SUM1_V1         N00168 0 5Vdc
V_TB_SUM1_V3         N00146 0  
+PWL 0ns 0V 100ns 0V 100.1ns 0V 200ns 0V 200.1ns 5V 300ns 5V 300.1ns 5V 400ns
+  5V 
V_TB_SUM1_V2         N00142 0  
+PWL 0ns 0V 100ns 0V 100.1ns 5V 200ns 5V 200.1ns 0V 300ns 0V 300.1ns 5V 400ns
+  5V 

**** RESUMING SUM8BIT_400P0_1ns.cir ****
.END

**** 11/08/22 21:39:07 **** PSpice 17.4.0 (8 October 2022) **** ID# 0 ********

 ** Profile: "TB_SUM8BIT-SUM8BIT_400P0_1ns"  [ d:\workspace\ub\2_fall2022\eleg448_vlsi\projects\project_2\alu-8bit\design\alu-PSpiceF


 ****     MOSFET MODEL PARAMETERS


******************************************************************************




               MbreakP         MbreakN         
               PMOS            NMOS            
       LEVEL    1               1            
           L  100.000000E-06  100.000000E-06 
           W  100.000000E-06  100.000000E-06 
         VTO    0               0            
          KP   20.000000E-06   20.000000E-06 
       GAMMA    0               0            
         PHI     .6              .6          
      LAMBDA    0               0            
          IS   10.000000E-15   10.000000E-15 
          JS    0               0            
          PB     .8              .8          
        PBSW     .8              .8          
          CJ    0               0            
        CJSW    0               0            
        CGSO    0               0            
        CGDO    0               0            
        CGBO    0               0            
         TOX    0               0            
          XJ    0               0            
       UCRIT   10.000000E+03   10.000000E+03 
      DIOMOD    1               1            
         VFB    0               0            
        LETA    0               0            
        WETA    0               0            
          U0    0               0            
        TEMP    0               0            
         VDD    5               5            
       XPART    0               0            


**** 11/08/22 21:39:07 **** PSpice 17.4.0 (8 October 2022) **** ID# 0 ********

 ** Profile: "TB_SUM8BIT-SUM8BIT_400P0_1ns"  [ d:\workspace\ub\2_fall2022\eleg448_vlsi\projects\project_2\alu-8bit\design\alu-PSpiceF


 ****     INITIAL TRANSIENT SOLUTION       TEMPERATURE =   27.000 DEG C


******************************************************************************



 NODE   VOLTAGE     NODE   VOLTAGE     NODE   VOLTAGE     NODE   VOLTAGE


(N00142)    0.0000 (N00146)    0.0000 (N00168)    5.0000                        

(OUT_S0_SUM8BIT) 33.40E-09            (OUT_S1_SUM8BIT) 33.40E-09                

(OUT_S2_SUM8BIT) 33.40E-09            (OUT_S3_SUM8BIT) 33.40E-09                

(OUT_S4_SUM8BIT) 33.40E-09            (OUT_S5_SUM8BIT) 33.40E-09                

(OUT_S6_SUM8BIT) 33.40E-09            (OUT_S7_SUM8BIT) 33.40E-09                

(DUT_SUM8BIT_SUM_8BIT_UNIT1_SUM_BLOCK_P_N14272)    5.0000                       

(DUT_SUM8BIT_SUM_8BIT_UNIT1_SUM_BLOCK_P_N14654)    4.9992                       

(DUT_SUM8BIT_SUM_8BIT_UNIT1_SUM_BLOCK_P_N14660)-63.35E-18                       

(DUT_SUM8BIT_SUM_8BIT_UNIT2_SUM_BLOCK_P_N14272)    5.0000                       

(DUT_SUM8BIT_SUM_8BIT_UNIT2_SUM_BLOCK_P_N14654)    4.9992                       

(DUT_SUM8BIT_SUM_8BIT_UNIT2_SUM_BLOCK_P_N14660)-63.35E-18                       

(DUT_SUM8BIT_SUM_8BIT_UNIT1_SUM_BLOCK1_P_N14272)    5.0000                      

(DUT_SUM8BIT_SUM_8BIT_UNIT1_SUM_BLOCK1_P_N14654)    4.9992                      

(DUT_SUM8BIT_SUM_8BIT_UNIT1_SUM_BLOCK1_P_N14660)-63.35E-18                      

(DUT_SUM8BIT_SUM_8BIT_UNIT1_SUM_BLOCK2_P_N14272)    5.0000                      

(DUT_SUM8BIT_SUM_8BIT_UNIT1_SUM_BLOCK2_P_N14654)    4.9992                      

(DUT_SUM8BIT_SUM_8BIT_UNIT1_SUM_BLOCK2_P_N14660)-63.35E-18                      

(DUT_SUM8BIT_SUM_8BIT_UNIT1_SUM_BLOCK3_P_N14272)    5.0000                      

(DUT_SUM8BIT_SUM_8BIT_UNIT1_SUM_BLOCK3_P_N14654)    4.9992                      

(DUT_SUM8BIT_SUM_8BIT_UNIT1_SUM_BLOCK3_P_N14660)-63.35E-18                      

(DUT_SUM8BIT_SUM_8BIT_UNIT1_SUM_BLOCK_P_IN1_INV)    5.0000                      

(DUT_SUM8BIT_SUM_8BIT_UNIT1_SUM_BLOCK_P_IN2_INV)    5.0000                      

(DUT_SUM8BIT_SUM_8BIT_UNIT2_SUM_BLOCK1_P_N14272)    5.0000                      

(DUT_SUM8BIT_SUM_8BIT_UNIT2_SUM_BLOCK1_P_N14654)    4.9992                      

(DUT_SUM8BIT_SUM_8BIT_UNIT2_SUM_BLOCK1_P_N14660)-63.35E-18                      

(DUT_SUM8BIT_SUM_8BIT_UNIT2_SUM_BLOCK2_P_N14272)    5.0000                      

(DUT_SUM8BIT_SUM_8BIT_UNIT2_SUM_BLOCK2_P_N14654)    4.9992                      

(DUT_SUM8BIT_SUM_8BIT_UNIT2_SUM_BLOCK2_P_N14660)-63.35E-18                      

(DUT_SUM8BIT_SUM_8BIT_UNIT2_SUM_BLOCK3_P_N14272)    5.0000                      

(DUT_SUM8BIT_SUM_8BIT_UNIT2_SUM_BLOCK3_P_N14654)    4.9992                      

(DUT_SUM8BIT_SUM_8BIT_UNIT2_SUM_BLOCK3_P_N14660)-63.35E-18                      

(DUT_SUM8BIT_SUM_8BIT_UNIT2_SUM_BLOCK_P_IN1_INV)    5.0000                      

(DUT_SUM8BIT_SUM_8BIT_UNIT2_SUM_BLOCK_P_IN2_INV)    5.0000                      

(DUT_SUM8BIT_SUM_8BIT_UNIT1_SUM_BLOCK1_P_IN1_INV)    5.0000                     

(DUT_SUM8BIT_SUM_8BIT_UNIT1_SUM_BLOCK1_P_IN2_INV)    5.0000                     

(DUT_SUM8BIT_SUM_8BIT_UNIT1_SUM_BLOCK2_P_IN1_INV)    5.0000                     

(DUT_SUM8BIT_SUM_8BIT_UNIT1_SUM_BLOCK2_P_IN2_INV)    5.0000                     

(DUT_SUM8BIT_SUM_8BIT_UNIT1_SUM_BLOCK3_P_IN1_INV)    5.0000                     

(DUT_SUM8BIT_SUM_8BIT_UNIT1_SUM_BLOCK3_P_IN2_INV)    5.0000                     

(DUT_SUM8BIT_SUM_8BIT_UNIT2_SUM_BLOCK1_P_IN1_INV)    5.0000                     

(DUT_SUM8BIT_SUM_8BIT_UNIT2_SUM_BLOCK1_P_IN2_INV)    5.0000                     

(DUT_SUM8BIT_SUM_8BIT_UNIT2_SUM_BLOCK2_P_IN1_INV)    5.0000                     

(DUT_SUM8BIT_SUM_8BIT_UNIT2_SUM_BLOCK2_P_IN2_INV)    5.0000                     

(DUT_SUM8BIT_SUM_8BIT_UNIT2_SUM_BLOCK3_P_IN1_INV)    5.0000                     

(DUT_SUM8BIT_SUM_8BIT_UNIT2_SUM_BLOCK3_P_IN2_INV)    5.0000                     

(DUT_SUM8BIT_SUM_8BIT_UNIT1_SUM_BLOCK_P_OUT1_XNOR)    5.0000                    

(DUT_SUM8BIT_SUM_8BIT_UNIT2_SUM_BLOCK_P_OUT1_XNOR)    5.0000                    

(DUT_SUM8BIT_SUM_8BIT_UNIT1_SUM_BLOCK1_P_OUT1_XNOR)    5.0000                   

(DUT_SUM8BIT_SUM_8BIT_UNIT1_SUM_BLOCK2_P_OUT1_XNOR)    5.0000                   

(DUT_SUM8BIT_SUM_8BIT_UNIT1_SUM_BLOCK3_P_OUT1_XNOR)    5.0000                   

(DUT_SUM8BIT_SUM_8BIT_UNIT2_SUM_BLOCK1_P_OUT1_XNOR)    5.0000                   

(DUT_SUM8BIT_SUM_8BIT_UNIT2_SUM_BLOCK2_P_OUT1_XNOR)    5.0000                   

(DUT_SUM8BIT_SUM_8BIT_UNIT2_SUM_BLOCK3_P_OUT1_XNOR)    5.0000               




    VOLTAGE SOURCE CURRENTS
    NAME         CURRENT

    V_TB_SUM1_V1  -2.805E-10
    V_TB_SUM1_V3   0.000E+00
    V_TB_SUM1_V2   0.000E+00

    TOTAL POWER DISSIPATION   1.40E-09  WATTS



          JOB CONCLUDED

**** 11/08/22 21:39:07 **** PSpice 17.4.0 (8 October 2022) **** ID# 0 ********

 ** Profile: "TB_SUM8BIT-SUM8BIT_400P0_1ns"  [ d:\workspace\ub\2_fall2022\eleg448_vlsi\projects\project_2\alu-8bit\design\alu-PSpiceF


 ****     JOB STATISTICS SUMMARY


******************************************************************************



  Total job time (using Solver 1)   =        1.00
