
**** 11/03/22 00:06:21 ******* PSpice 17.4.0 (Nov 2018) ******* ID# 0 ********

 ** Profile: "PG_BLOCK-pg_unit"  [ d:\workspace\orcad\capture\gp_4bit_block-PSpiceFiles\PG_BLOCK\pg_unit.sim ] 


 ****     CIRCUIT DESCRIPTION


******************************************************************************




** Creating circuit file "pg_unit.cir" 
** WARNING: THIS AUTOMATICALLY GENERATED FILE MAY BE OVERWRITTEN BY SUBSEQUENT SIMULATIONS

*Libraries: 
* Profile Libraries :
* Local Libraries :
* From [PSPICE NETLIST] section of C:\Users\Rajiv\cdssetup\OrCAD_PSpice\17.4.0\PSpice.ini file:
.lib "nom.lib" 

*Analysis directives: 
.TRAN  0 400ns 0 0.1n 
.OPTIONS ADVCONV
.PROBE64 V(alias(*)) I(alias(*)) W(alias(*)) D(alias(*)) NOISE(alias(*)) 
.INC "..\PG_BLOCK.net" 



**** INCLUDING PG_BLOCK.net ****
* source GP_4BIT_BLOCK
M_G0_M2         G0_N03392 A0 0 0 MbreakN  
+ L=2e-6  
+ W=3e-6         
M_G0_M1         G0_A_NAND_B B0 G0_N03392 0 MbreakN  
+ L=2e-6  
+ W=3e-6         
M_G0_M3         G0 G0_A_NAND_B 0 0 MbreakN  
+ L=2e-6  
+ W=3e-6         
M_G0_M4         G0 G0_A_NAND_B VCC_PG VCC_PG MbreakP  
+ L=2e-6  
+ W=9e-6         
M_G0_M6         G0_A_NAND_B B0 VCC_PG VCC_PG MbreakP  
+ L=2e-6  
+ W=9e-6         
M_G0_M5         G0_A_NAND_B A0 VCC_PG VCC_PG MbreakP  
+ L=2e-6  
+ W=9e-6         
M_P0_M105         P0_OUT1_XNOR A0 P0_N14272 VCC_PG MbreakP  
+ L=2e-6  
+ W=9e-6         
M_P0_M102         P0_N14272 B0 VCC_PG VCC_PG MbreakP  
+ L=2e-6  
+ W=9e-6         
M_P0_M106         P0_IN2_INV B0 VCC_PG VCC_PG MbreakP  
+ L=2e-6  
+ W=9e-6         
M_P0_M1         P0_OUT1_XNOR P0_IN1_INV P0_N14654 0 MbreakN  
+ L=2e-6  
+ W=3e-6         
M_P0_M101         P0_N14272 P0_IN1_INV VCC_PG VCC_PG MbreakP  
+ L=2e-6  
+ W=9e-6         
M_P0_M4         P0_N14660 P0_IN2_INV 0 0 MbreakN  
+ L=2e-6  
+ W=3e-6         
M_P0_M3         P0_OUT1_XNOR A0 P0_N14660 0 MbreakN  
+ L=2e-6  
+ W=3e-6         
M_P0_M108         P0 P0_OUT1_XNOR 0 0 MbreakN  
+ L=2e-6  
+ W=3e-6         
M_P0_M6         P0_IN2_INV B0 0 0 MbreakN  
+ L=2e-6  
+ W=3e-6         
M_P0_M107         P0 P0_OUT1_XNOR VCC_PG VCC_PG MbreakP  
+ L=2e-6  
+ W=9e-6         
M_P0_M2         P0_N14654 B0 0 0 MbreakN  
+ L=2e-6  
+ W=3e-6         
M_P0_M5         P0_IN1_INV A0 0 0 MbreakN  
+ L=2e-6  
+ W=3e-6         
M_P0_M104         P0_OUT1_XNOR P0_IN2_INV P0_N14272 VCC_PG MbreakP  
+ L=2e-6  
+ W=9e-6         
M_P0_M9         P0_IN1_INV A0 VCC_PG VCC_PG MbreakP  
+ L=2e-6  
+ W=9e-6         
V_V1         VCC_PG 0 5Vdc
V_V5         B0 0  
+PWL 0ns 0V 100ns 0V 100ns 5V 200ns 5V 200.1ns 0V 300ns 0V 300ns 5V 400ns 5V 
V_V6         A0 0  
+PWL 0ns 0V 100ns 0V 100.1ns 0V 200ns 0V 200.1ns 5V 300ns 5V 300.1ns 5V 400ns
+  5V 

**** RESUMING pg_unit.cir ****
.END

**** 11/03/22 00:06:21 ******* PSpice 17.4.0 (Nov 2018) ******* ID# 0 ********

 ** Profile: "PG_BLOCK-pg_unit"  [ d:\workspace\orcad\capture\gp_4bit_block-PSpiceFiles\PG_BLOCK\pg_unit.sim ] 


 ****     MOSFET MODEL PARAMETERS


******************************************************************************




               MbreakN         MbreakP         
               NMOS            PMOS            
       LEVEL    1               1            
           L  100.000000E-06  100.000000E-06 
           W  100.000000E-06  100.000000E-06 
         VTO    0               0            
          KP   20.000000E-06   20.000000E-06 
       GAMMA    0               0            
         PHI     .6              .6          
      LAMBDA    0               0            
          IS   10.000000E-15   10.000000E-15 
          JS    0               0            
          PB     .8              .8          
        PBSW     .8              .8          
          CJ    0               0            
        CJSW    0               0            
        CGSO    0               0            
        CGDO    0               0            
        CGBO    0               0            
         TOX    0               0            
          XJ    0               0            
       UCRIT   10.000000E+03   10.000000E+03 
      DIOMOD    1               1            
         VFB    0               0            
        LETA    0               0            
        WETA    0               0            
          U0    0               0            
        TEMP    0               0            
         VDD    5               5            
       XPART    0               0            


**** 11/03/22 00:06:21 ******* PSpice 17.4.0 (Nov 2018) ******* ID# 0 ********

 ** Profile: "PG_BLOCK-pg_unit"  [ d:\workspace\orcad\capture\gp_4bit_block-PSpiceFiles\PG_BLOCK\pg_unit.sim ] 


 ****     INITIAL TRANSIENT SOLUTION       TEMPERATURE =   27.000 DEG C


******************************************************************************



 NODE   VOLTAGE     NODE   VOLTAGE     NODE   VOLTAGE     NODE   VOLTAGE


(   A0)    0.0000  (   B0)    0.0000  (   G0) 33.40E-09  (   P0) 33.40E-09      

(VCC_PG)    5.0000 (G0_N03392)-565.3E-09                 (P0_N14272)    5.0000  

(P0_N14654)    4.9992                 (P0_N14660)-63.35E-18                     

(P0_IN1_INV)    5.0000                (P0_IN2_INV)    5.0000                    

(G0_A_NAND_B)    5.0000               (P0_OUT1_XNOR)    5.0000              




    VOLTAGE SOURCE CURRENTS
    NAME         CURRENT

    V_V1        -4.509E-11
    V_V5         0.000E+00
    V_V6         0.000E+00

    TOTAL POWER DISSIPATION   2.25E-10  WATTS



          JOB CONCLUDED

**** 11/03/22 00:06:21 ******* PSpice 17.4.0 (Nov 2018) ******* ID# 0 ********

 ** Profile: "PG_BLOCK-pg_unit"  [ d:\workspace\orcad\capture\gp_4bit_block-PSpiceFiles\PG_BLOCK\pg_unit.sim ] 


 ****     JOB STATISTICS SUMMARY


******************************************************************************



  Total job time (using Solver 1)   =         .30
