
**** 11/23/22 19:57:49 **** PSpice 17.4.0 (8 October 2022) **** ID# 0 ********

 ** Profile: "SCHEMATIC1-mux_1bit"  [ d:\workspace\ub\2_fall2022\eleg448_vlsi\projects\project_2\alu-8bit\work\mux\mux16x1-PSpiceFile


 ****     CIRCUIT DESCRIPTION


******************************************************************************




** Creating circuit file "mux_1bit.cir" 
** WARNING: THIS AUTOMATICALLY GENERATED FILE MAY BE OVERWRITTEN BY SUBSEQUENT SIMULATIONS

*Libraries: 
* Profile Libraries :
* Local Libraries :
* From [PSPICE NETLIST] section of C:\Users\Rajiv\cdssetup\OrCAD_PSpice\17.4.0\PSpice.ini file:
.lib "nom.lib" 

*Analysis directives: 
.TRAN  0 400ns 0 0.1n 
.OPTIONS ADVCONV
.PROBE64 V(alias(*)) I(alias(*)) W(alias(*)) D(alias(*)) NOISE(alias(*)) 
.INC "..\SCHEMATIC1.net" 



**** INCLUDING SCHEMATIC1.net ****
* source MUX16X1
M_M2         Y S_INV A A MbreakP  
+ L=2e-6  
+ W=9e-6         
M_M1         A S Y Y MbreakN  
+ L=2e-6  
+ W=3e-6         
M_M11         S_INV S 0 0 MbreakN  
+ L=2e-6  
+ W=3e-6         
M_M9         S_INV S VDC_INVERT VDC_INVERT MbreakP  
+ L=2e-6  
+ W=9e-6         
V_V1         VDC_INVERT 0 5Vdc
V_V3         S 0  
+PWL 0ns 0V 100ns 0V 100.1ns 0V 200ns 0V 200.1ns 5V 300ns 5V 300.1ns 5V 400ns
+  5V 
V_V2         A 0  
+PWL 0ns 0V 100ns 0V 100.1ns 5V 200ns 5V 200.1ns 0V 300ns 0V 300.1ns 5V 400ns
+  5V 

**** RESUMING mux_1bit.cir ****
.END

**** 11/23/22 19:57:49 **** PSpice 17.4.0 (8 October 2022) **** ID# 0 ********

 ** Profile: "SCHEMATIC1-mux_1bit"  [ d:\workspace\ub\2_fall2022\eleg448_vlsi\projects\project_2\alu-8bit\work\mux\mux16x1-PSpiceFile


 ****     MOSFET MODEL PARAMETERS


******************************************************************************




               MbreakP         MbreakN         
               PMOS            NMOS            
       LEVEL    1               1            
           L  100.000000E-06  100.000000E-06 
           W  100.000000E-06  100.000000E-06 
         VTO    0               0            
          KP   20.000000E-06   20.000000E-06 
       GAMMA    0               0            
         PHI     .6              .6          
      LAMBDA    0               0            
          IS   10.000000E-15   10.000000E-15 
          JS    0               0            
          PB     .8              .8          
        PBSW     .8              .8          
          CJ    0               0            
        CJSW    0               0            
        CGSO    0               0            
        CGDO    0               0            
        CGBO    0               0            
         TOX    0               0            
          XJ    0               0            
       UCRIT   10.000000E+03   10.000000E+03 
      DIOMOD    1               1            
         VFB    0               0            
        LETA    0               0            
        WETA    0               0            
          U0    0               0            
        TEMP    0               0            
         VDD    5               5            
       XPART    0               0            


**** 11/23/22 19:57:49 **** PSpice 17.4.0 (8 October 2022) **** ID# 0 ********

 ** Profile: "SCHEMATIC1-mux_1bit"  [ d:\workspace\ub\2_fall2022\eleg448_vlsi\projects\project_2\alu-8bit\work\mux\mux16x1-PSpiceFile


 ****     INITIAL TRANSIENT SOLUTION       TEMPERATURE =   27.000 DEG C


******************************************************************************



 NODE   VOLTAGE     NODE   VOLTAGE     NODE   VOLTAGE     NODE   VOLTAGE


(    A)    0.0000  (    S)    0.0000  (    Y) 231.2E-15  (S_INV)    5.0000      

(VDC_INVERT)    5.0000                




    VOLTAGE SOURCE CURRENTS
    NAME         CURRENT

    V_V1        -5.010E-12
    V_V3         0.000E+00
    V_V2         0.000E+00

    TOTAL POWER DISSIPATION   2.51E-11  WATTS



          JOB CONCLUDED

**** 11/23/22 19:57:49 **** PSpice 17.4.0 (8 October 2022) **** ID# 0 ********

 ** Profile: "SCHEMATIC1-mux_1bit"  [ d:\workspace\ub\2_fall2022\eleg448_vlsi\projects\project_2\alu-8bit\work\mux\mux16x1-PSpiceFile


 ****     JOB STATISTICS SUMMARY


******************************************************************************



  Total job time (using Solver 1)   =         .06
